data_nwchem_pspw

_audit_creation_date   Wed May 11 13:00:56 2022
_audit_creation_method    generated by PSPW module of NWChem


_cell_length_a            11.8532
_cell_length_b            11.8532
_cell_length_c            11.8532
_cell_angle_alpha         90.0000
_cell_angle_beta          90.0000
_cell_angle_gamma         90.0000

_symmetry_space_group_name_H-M     P1  

loop_
_atom_site_type_symbol
_atom_site_fract_x
_atom_site_fract_y
_atom_site_fract_z
Si           -0.000000      0.370070      0.184020
Si           -0.000000     -0.370070      0.184020
Si            0.000000      0.370070     -0.184020
Si            0.000000     -0.370070     -0.184020
Si            0.184020      0.000000      0.370070
Si            0.184020      0.000000     -0.370070
Si           -0.184020      0.000000      0.370070
Si           -0.184020      0.000000     -0.370070
Si            0.370070      0.184020      0.000000
Si           -0.370070      0.184020      0.000000
Si            0.370070     -0.184020      0.000000
Si           -0.370070     -0.184020      0.000000
Si            0.370070      0.000000     -0.184020
Si           -0.370070     -0.000000     -0.184020
Si            0.370070      0.000000      0.184020
Si           -0.370070      0.000000      0.184020
Si            0.000000      0.184020     -0.370070
Si            0.000000      0.184020      0.370070
Si            0.000000     -0.184020     -0.370070
Si            0.000000     -0.184020      0.370070
Si            0.184020      0.370070      0.000000
Si            0.184020     -0.370070      0.000000
Si           -0.184020      0.370070      0.000000
Si           -0.184020     -0.370070      0.000000
O             0.000000      0.500000      0.223450
O             0.000000      0.500000     -0.223450
O             0.223450      0.000000      0.500000
O            -0.223450      0.000000      0.500000
O             0.500000      0.223450      0.000000
O             0.500000     -0.223450      0.000000
O             0.500000      0.000000     -0.223450
O             0.500000      0.000000      0.223450
O            -0.000000      0.223450      0.500000
O            -0.000000     -0.223450      0.500000
O             0.223450      0.500000      0.000000
O            -0.223450      0.500000      0.000000
O            -0.000000      0.291290      0.291290
O            -0.000000     -0.291290      0.291290
O            -0.000000      0.291290     -0.291290
O            -0.000000     -0.291290     -0.291290
O             0.291290     -0.000000      0.291290
O             0.291290     -0.000000     -0.291290
O            -0.291290     -0.000000      0.291290
O            -0.291290     -0.000000     -0.291290
O             0.291290      0.291290      0.000000
O            -0.291290      0.291290      0.000000
O             0.291290     -0.291290      0.000000
O            -0.291290     -0.291290      0.000000
O             0.108580      0.108580      0.348090
O            -0.108580     -0.108580      0.348090
O            -0.108580      0.108580     -0.348090
O             0.108580     -0.108580     -0.348090
O             0.348090      0.108580      0.108580
O             0.348090     -0.108580     -0.108580
O            -0.348090     -0.108580      0.108580
O            -0.348090      0.108580     -0.108580
O             0.108580      0.348090      0.108580
O            -0.108580      0.348090     -0.108580
O             0.108580     -0.348090     -0.108580
O            -0.108580     -0.348090      0.108580
O             0.108580      0.108580     -0.348090
O            -0.108580     -0.108580     -0.348090
O             0.108580     -0.108580      0.348090
O            -0.108580      0.108580      0.348090
O             0.108580      0.348090     -0.108580
O            -0.108580      0.348090      0.108580
O            -0.108580     -0.348090     -0.108580
O             0.108580     -0.348090      0.108580
O             0.348090      0.108580     -0.108580
O             0.348090     -0.108580      0.108580
O            -0.348090      0.108580      0.108580
O            -0.348090     -0.108580     -0.108580
data_nwchem_pspw

_audit_creation_date   Wed May 11 13:02:27 2022
_audit_creation_method    generated by PSPW module of NWChem


_cell_length_a            11.8532
_cell_length_b            11.8532
_cell_length_c            11.8532
_cell_angle_alpha         90.0000
_cell_angle_beta          90.0000
_cell_angle_gamma         90.0000

_symmetry_space_group_name_H-M     P1  

loop_
_atom_site_type_symbol
_atom_site_fract_x
_atom_site_fract_y
_atom_site_fract_z
Si           -0.000000      0.370070      0.184020
Si           -0.000000     -0.370070      0.184020
Si            0.000000      0.370070     -0.184020
Si            0.000000     -0.370070     -0.184020
Si            0.184020      0.000000      0.370070
Si            0.184020      0.000000     -0.370070
Si           -0.184020      0.000000      0.370070
Si           -0.184020      0.000000     -0.370070
Si            0.370070      0.184020      0.000000
Si           -0.370070      0.184020      0.000000
Si            0.370070     -0.184020      0.000000
Si           -0.370070     -0.184020      0.000000
Si            0.370070      0.000000     -0.184020
Si           -0.370070     -0.000000     -0.184020
Si            0.370070      0.000000      0.184020
Si           -0.370070      0.000000      0.184020
Si            0.000000      0.184020     -0.370070
Si            0.000000      0.184020      0.370070
Si            0.000000     -0.184020     -0.370070
Si            0.000000     -0.184020      0.370070
Si            0.184020      0.370070      0.000000
Si            0.184020     -0.370070      0.000000
Si           -0.184020      0.370070      0.000000
Si           -0.184020     -0.370070      0.000000
O             0.000000      0.500000      0.223450
O             0.000000      0.500000     -0.223450
O             0.223450      0.000000      0.500000
O            -0.223450      0.000000      0.500000
O             0.500000      0.223450      0.000000
O             0.500000     -0.223450      0.000000
O             0.500000      0.000000     -0.223450
O             0.500000      0.000000      0.223450
O            -0.000000      0.223450      0.500000
O            -0.000000     -0.223450      0.500000
O             0.223450      0.500000      0.000000
O            -0.223450      0.500000      0.000000
O            -0.000000      0.291290      0.291290
O            -0.000000     -0.291290      0.291290
O            -0.000000      0.291290     -0.291290
O            -0.000000     -0.291290     -0.291290
O             0.291290     -0.000000      0.291290
O             0.291290     -0.000000     -0.291290
O            -0.291290     -0.000000      0.291290
O            -0.291290     -0.000000     -0.291290
O             0.291290      0.291290      0.000000
O            -0.291290      0.291290      0.000000
O             0.291290     -0.291290      0.000000
O            -0.291290     -0.291290      0.000000
O             0.108580      0.108580      0.348090
O            -0.108580     -0.108580      0.348090
O            -0.108580      0.108580     -0.348090
O             0.108580     -0.108580     -0.348090
O             0.348090      0.108580      0.108580
O             0.348090     -0.108580     -0.108580
O            -0.348090     -0.108580      0.108580
O            -0.348090      0.108580     -0.108580
O             0.108580      0.348090      0.108580
O            -0.108580      0.348090     -0.108580
O             0.108580     -0.348090     -0.108580
O            -0.108580     -0.348090      0.108580
O             0.108580      0.108580     -0.348090
O            -0.108580     -0.108580     -0.348090
O             0.108580     -0.108580      0.348090
O            -0.108580      0.108580      0.348090
O             0.108580      0.348090     -0.108580
O            -0.108580      0.348090      0.108580
O            -0.108580     -0.348090     -0.108580
O             0.108580     -0.348090      0.108580
O             0.348090      0.108580     -0.108580
O             0.348090     -0.108580      0.108580
O            -0.348090      0.108580      0.108580
O            -0.348090     -0.108580     -0.108580
data_nwchem_pspw

_audit_creation_date   Wed May 11 13:05:12 2022
_audit_creation_method    generated by PSPW module of NWChem


_cell_length_a            11.8532
_cell_length_b            11.8532
_cell_length_c            11.8532
_cell_angle_alpha         90.0000
_cell_angle_beta          90.0000
_cell_angle_gamma         90.0000

_symmetry_space_group_name_H-M     P1  

loop_
_atom_site_type_symbol
_atom_site_fract_x
_atom_site_fract_y
_atom_site_fract_z
Si           -0.000000      0.370070      0.184020
Si           -0.000000     -0.370070      0.184020
Si            0.000000      0.370070     -0.184020
Si            0.000000     -0.370070     -0.184020
Si            0.184020      0.000000      0.370070
Si            0.184020      0.000000     -0.370070
Si           -0.184020      0.000000      0.370070
Si           -0.184020      0.000000     -0.370070
Si            0.370070      0.184020      0.000000
Si           -0.370070      0.184020      0.000000
Si            0.370070     -0.184020      0.000000
Si           -0.370070     -0.184020      0.000000
Si            0.370070      0.000000     -0.184020
Si           -0.370070     -0.000000     -0.184020
Si            0.370070      0.000000      0.184020
Si           -0.370070      0.000000      0.184020
Si            0.000000      0.184020     -0.370070
Si            0.000000      0.184020      0.370070
Si            0.000000     -0.184020     -0.370070
Si            0.000000     -0.184020      0.370070
Si            0.184020      0.370070      0.000000
Si            0.184020     -0.370070      0.000000
Si           -0.184020      0.370070      0.000000
Si           -0.184020     -0.370070      0.000000
O             0.000000      0.500000      0.223450
O             0.000000      0.500000     -0.223450
O             0.223450      0.000000      0.500000
O            -0.223450      0.000000      0.500000
O             0.500000      0.223450      0.000000
O             0.500000     -0.223450      0.000000
O             0.500000      0.000000     -0.223450
O             0.500000      0.000000      0.223450
O            -0.000000      0.223450      0.500000
O            -0.000000     -0.223450      0.500000
O             0.223450      0.500000      0.000000
O            -0.223450      0.500000      0.000000
O            -0.000000      0.291290      0.291290
O            -0.000000     -0.291290      0.291290
O            -0.000000      0.291290     -0.291290
O            -0.000000     -0.291290     -0.291290
O             0.291290     -0.000000      0.291290
O             0.291290     -0.000000     -0.291290
O            -0.291290     -0.000000      0.291290
O            -0.291290     -0.000000     -0.291290
O             0.291290      0.291290      0.000000
O            -0.291290      0.291290      0.000000
O             0.291290     -0.291290      0.000000
O            -0.291290     -0.291290      0.000000
O             0.108580      0.108580      0.348090
O            -0.108580     -0.108580      0.348090
O            -0.108580      0.108580     -0.348090
O             0.108580     -0.108580     -0.348090
O             0.348090      0.108580      0.108580
O             0.348090     -0.108580     -0.108580
O            -0.348090     -0.108580      0.108580
O            -0.348090      0.108580     -0.108580
O             0.108580      0.348090      0.108580
O            -0.108580      0.348090     -0.108580
O             0.108580     -0.348090     -0.108580
O            -0.108580     -0.348090      0.108580
O             0.108580      0.108580     -0.348090
O            -0.108580     -0.108580     -0.348090
O             0.108580     -0.108580      0.348090
O            -0.108580      0.108580      0.348090
O             0.108580      0.348090     -0.108580
O            -0.108580      0.348090      0.108580
O            -0.108580     -0.348090     -0.108580
O             0.108580     -0.348090      0.108580
O             0.348090      0.108580     -0.108580
O             0.348090     -0.108580      0.108580
O            -0.348090      0.108580      0.108580
O            -0.348090     -0.108580     -0.108580
